opendss_networks/LV28_25bus/lines.dss
new line.L_166 lineCode=abc4x16_lv_oh_4w_bundled bus1=B1352 bus2=B885 length=0.00366100080857 units=km phases=4
new line.L_538 lineCode=moon_lv_oh_4wire bus1=B301 bus2=B689 length=0.0764053708264 units=km phases=4
new line.L_563 lineCode=abc4x16_lv_oh_4w_bundled bus1=B3400 bus2=B363 length=0.0401253302810 units=km phases=4
new line.L_640 lineCode=ughv_400al_triplex_ug_4w_bundled bus1=B1374 bus2=B885 length=0.000592171994723 units=km phases=4
new line.L_950 lineCode=ughv_400al_triplex_ug_4w_bundled bus1=B2551 bus2=B2255 length=0.000299153552267 units=km phases=4
new line.L_1048 lineCode=uglv_240al_xlpe/nyl/pvc_ug_4w_bundled bus1=B2766 bus2=B1215 length=0.0832520796499 units=km phases=4
new line.L_1211 lineCode=ughv_400al_triplex_ug_4w_bundled bus1=B504 bus2=B301 length=0.000593338669163 units=km phases=4
new line.L_1390 lineCode=ughv_400al_triplex_ug_4w_bundled bus1=B3352 bus2=B2766 length=0.000200000000000 units=km phases=4
new line.L_1486 lineCode=moon_lv_oh_4wire bus1=B2086 bus2=B168 length=0.0405939843044 units=km phases=4
new line.L_1757 lineCode=moon_lv_oh_4wire bus1=B689 bus2=B2436 length=0.0514754808266 units=km phases=4
new line.L_2018 lineCode=ughv_400al_triplex_ug_4w_bundled bus1=B363 bus2=B689 length=0.000300387651570 units=km phases=4
new line.L_2127 lineCode=moon_lv_oh_4wire bus1=B504 bus2=B2086 length=0.0342253433977 units=km phases=4
new line.L_2573 lineCode=abc4x16_lv_oh_4w_bundled bus1=B107 bus2=B1374 length=0.0520256689211 units=km phases=4
new line.L_2597 lineCode=ughv_400al_triplex_ug_4w_bundled bus1=B2274 bus2=B2086 length=0.000200000000000 units=km phases=4
new line.L_2702 lineCode=ughv_400al_triplex_ug_4w_bundled bus1=B107 bus2=B689 length=0.000305967087228 units=km phases=4
new line.L_2778 lineCode=moon_lv_oh_4wire bus1=B168 bus2=B1189 length=0.0307734308644 units=km phases=4
new line.L_3095 lineCode=ughv_400al_triplex_ug_4w_bundled bus1=B706 bus2=B2086 length=0.000293256619929 units=km phases=4
new line.L_3238 lineCode=abc4x16_lv_oh_4w_bundled bus1=B266 bus2=B706 length=0.155261377135 units=km phases=4
new line.L_3405 lineCode=uglv_240al_xlpe/nyl/pvc_ug_4w_bundled bus1=B1215 bus2=B2695 length=0.0198168034030 units=km phases=4
new line.L_3799 lineCode=ughv_400al_triplex_ug_4w_bundled bus1=B554 bus2=B897 length=0.000386643049639 units=km phases=4
new line.L_4231 lineCode=ughv_400al_triplex_ug_4w_bundled bus1=B1343 bus2=B504 length=0.000353736520033 units=km phases=4
